<?xml version="1.0" encoding="UTF-8"?>


<net version="1.9" junctionCornerDetail="5" limitTurnSpeed="5.50" xmlns:xsi="http://www.w3.org/2001/XMLSchema-instance" xsi:noNamespaceSchemaLocation="http://sumo.dlr.de/xsd/net_file.xsd">

    <location netOffset="-254566.15,-3312504.49" convBoundary="7200.69,12624.58,14184.51,13616.21" origBoundary="120.360919,29.920924,120.870362,30.172012" projParameter="+proj=utm +zone=51 +ellps=WGS84 +datum=WGS84 +units=m +no_defs"/>

    <type id="highway.bridleway" priority="1" numLanes="1" speed="2.78" allow="pedestrian" oneway="1" width="2.00"/>
    <type id="highway.bus_guideway" priority="1" numLanes="1" speed="27.78" allow="bus" oneway="1"/>
    <type id="highway.cycleway" priority="1" numLanes="1" speed="8.33" allow="bicycle" oneway="0" width="1.00"/>
    <type id="highway.footway" priority="1" numLanes="1" speed="2.78" allow="pedestrian" oneway="1" width="2.00"/>
    <type id="highway.ford" priority="1" numLanes="1" speed="2.78" allow="army" oneway="0"/>
    <type id="highway.living_street" priority="2" numLanes="1" speed="2.78" disallow="tram rail_urban rail rail_electric rail_fast ship" oneway="0"/>
    <type id="highway.motorway" priority="14" numLanes="2" speed="39.44" allow="private emergency authority army vip passenger hov taxi bus coach delivery truck trailer motorcycle evehicle custom1 custom2" oneway="1"/>
    <type id="highway.motorway_link" priority="9" numLanes="1" speed="22.22" allow="private emergency authority army vip passenger hov taxi bus coach delivery truck trailer motorcycle evehicle custom1 custom2" oneway="1"/>
    <type id="highway.path" priority="1" numLanes="1" speed="2.78" allow="pedestrian bicycle" oneway="0" width="2.00"/>
    <type id="highway.pedestrian" priority="1" numLanes="1" speed="2.78" allow="pedestrian" oneway="1" width="2.00"/>
    <type id="highway.primary" priority="12" numLanes="2" speed="27.78" disallow="tram rail_urban rail rail_electric rail_fast ship" oneway="0"/>
    <type id="highway.primary_link" priority="7" numLanes="1" speed="22.22" disallow="tram rail_urban rail rail_electric rail_fast ship" oneway="0"/>
    <type id="highway.raceway" priority="15" numLanes="2" speed="83.33" allow="vip" oneway="0"/>
    <type id="highway.residential" priority="3" numLanes="1" speed="13.89" disallow="tram rail_urban rail rail_electric rail_fast ship" oneway="0"/>
    <type id="highway.secondary" priority="11" numLanes="1" speed="27.78" disallow="tram rail_urban rail rail_electric rail_fast ship" oneway="0"/>
    <type id="highway.secondary_link" priority="6" numLanes="1" speed="22.22" disallow="tram rail_urban rail rail_electric rail_fast ship" oneway="0"/>
    <type id="highway.service" priority="1" numLanes="1" speed="5.56" allow="pedestrian delivery bicycle" oneway="0"/>
    <type id="highway.stairs" priority="1" numLanes="1" speed="1.39" allow="pedestrian" oneway="1" width="2.00"/>
    <type id="highway.step" priority="1" numLanes="1" speed="1.39" allow="pedestrian" oneway="1" width="2.00"/>
    <type id="highway.steps" priority="1" numLanes="1" speed="1.39" allow="pedestrian" oneway="1" width="2.00"/>
    <type id="highway.tertiary" priority="10" numLanes="1" speed="22.22" disallow="tram rail_urban rail rail_electric rail_fast ship" oneway="0"/>
    <type id="highway.tertiary_link" priority="5" numLanes="1" speed="22.22" disallow="tram rail_urban rail rail_electric rail_fast ship" oneway="0"/>
    <type id="highway.track" priority="1" numLanes="1" speed="5.56" allow="pedestrian motorcycle moped bicycle" oneway="0"/>
    <type id="highway.trunk" priority="13" numLanes="2" speed="27.78" disallow="pedestrian bicycle tram rail_urban rail rail_electric rail_fast ship" oneway="0"/>
    <type id="highway.trunk_link" priority="8" numLanes="1" speed="22.22" disallow="pedestrian bicycle tram rail_urban rail rail_electric rail_fast ship" oneway="0"/>
    <type id="highway.unclassified" priority="4" numLanes="1" speed="13.89" disallow="tram rail_urban rail rail_electric rail_fast ship" oneway="0"/>
    <type id="highway.unsurfaced" priority="1" numLanes="1" speed="8.33" disallow="tram rail_urban rail rail_electric rail_fast ship" oneway="0"/>
    <type id="railway.highspeed" priority="21" numLanes="1" speed="69.44" allow="rail_fast" oneway="1"/>
    <type id="railway.light_rail" priority="19" numLanes="1" speed="27.78" allow="rail_urban" oneway="1"/>
    <type id="railway.preserved" priority="16" numLanes="1" speed="27.78" allow="rail" oneway="1"/>
    <type id="railway.rail" priority="20" numLanes="1" speed="44.44" allow="rail" oneway="1"/>
    <type id="railway.subway" priority="18" numLanes="1" speed="27.78" allow="rail_urban" oneway="1"/>
    <type id="railway.tram" priority="17" numLanes="1" speed="13.89" allow="tram" oneway="1"/>

    <edge id=":J0_0" function="internal">
        <lane id=":J0_0_0" index="0" disallow="pedestrian tram rail_urban rail rail_electric rail_fast ship" speed="13.89" length="13.41" shape="8807.56,13155.26 8794.35,13157.38"/>
        <lane id=":J0_0_1" index="1" disallow="pedestrian tram rail_urban rail rail_electric rail_fast ship" speed="13.89" length="13.41" shape="8807.06,13152.09 8793.79,13154.23"/>
    </edge>
    <edge id=":J0_2" function="internal">
        <lane id=":J0_2_0" index="0" disallow="pedestrian tram rail_urban rail rail_electric rail_fast ship" speed="13.89" length="14.11" shape="8792.67,13147.97 8796.61,13146.76 8799.11,13145.24 8801.61,13143.74 8805.57,13142.61"/>
        <lane id=":J0_2_1" index="1" disallow="pedestrian tram rail_urban rail rail_electric rail_fast ship" speed="13.89" length="14.11" shape="8792.67,13147.97 8806.07,13145.77"/>
        <lane id=":J0_2_2" index="2" disallow="pedestrian tram rail_urban rail rail_electric rail_fast ship" speed="13.89" length="14.11" shape="8792.67,13147.97 8796.76,13147.75 8799.61,13148.40 8802.46,13149.07 8806.57,13148.93"/>
        <lane id=":J0_2_3" index="3" disallow="pedestrian tram rail_urban rail rail_electric rail_fast ship" speed="13.89" length="14.11" shape="8793.23,13151.12 8797.23,13149.39 8799.39,13146.81 8801.56,13144.25 8805.57,13142.61"/>
        <lane id=":J0_2_4" index="4" disallow="pedestrian tram rail_urban rail rail_electric rail_fast ship" speed="13.89" length="14.11" shape="8793.23,13151.12 8797.16,13149.91 8799.64,13148.39 8802.13,13146.90 8806.07,13145.77"/>
        <lane id=":J0_2_5" index="5" disallow="pedestrian tram rail_urban rail rail_electric rail_fast ship" speed="13.89" length="14.11" shape="8793.23,13151.12 8806.57,13148.93"/>
    </edge>
    <edge id=":J048_0" function="internal">
        <lane id=":J048_0_0" index="0" disallow="pedestrian tram rail_urban rail rail_electric rail_fast ship" speed="6.50" length="9.03" shape="8012.41,13309.56 8010.08,13310.41 8008.59,13311.80 8007.92,13313.73 8008.09,13316.20"/>
    </edge>
    <edge id=":J048_1" function="internal">
        <lane id=":J048_1_0" index="0" disallow="pedestrian tram rail_urban rail rail_electric rail_fast ship" speed="13.89" length="27.43" shape="8012.41,13309.56 8003.87,13310.85 7997.41,13311.09 7991.63,13311.17 7985.12,13312.02"/>
        <lane id=":J048_1_1" index="1" disallow="pedestrian tram rail_urban rail rail_electric rail_fast ship" speed="13.89" length="27.43" shape="8011.74,13306.43 8003.21,13307.72 7996.76,13307.95 7990.98,13308.04 7984.47,13308.88"/>
    </edge>
    <edge id=":J048_3" function="internal">
        <lane id=":J048_3_0" index="0" disallow="pedestrian tram rail_urban rail rail_electric rail_fast ship" speed="10.67" length="7.16" shape="8011.08,13303.29 8004.35,13303.73 8003.96,13303.60"/>
    </edge>
    <edge id=":J048_10" function="internal">
        <lane id=":J048_10_0" index="0" disallow="pedestrian tram rail_urban rail rail_electric rail_fast ship" speed="10.67" length="17.87" shape="8003.96,13303.60 7998.98,13301.91 7994.97,13297.82 7992.31,13291.47"/>
    </edge>
    <edge id=":J048_4" function="internal">
        <lane id=":J048_4_0" index="0" disallow="pedestrian tram rail_urban rail rail_electric rail_fast ship" speed="8.38" length="15.08" shape="7998.49,13289.83 8000.10,13293.68 8002.51,13296.17 8005.73,13297.29 8009.75,13297.03"/>
    </edge>
    <edge id=":J048_5" function="internal">
        <lane id=":J048_5_0" index="0" disallow="pedestrian tram rail_urban rail rail_electric rail_fast ship" speed="10.17" length="24.55" shape="7995.40,13290.65 7996.22,13297.46 7994.67,13302.77 7990.76,13306.58 7984.47,13308.88"/>
    </edge>
    <edge id=":J048_6" function="internal">
        <lane id=":J048_6_0" index="0" disallow="pedestrian tram rail_urban rail rail_electric rail_fast ship" speed="7.05" length="11.22" shape="7982.52,13299.48 7985.99,13298.40 7988.27,13296.84 7989.34,13294.80 7989.21,13292.29"/>
    </edge>
    <edge id=":J048_7" function="internal">
        <lane id=":J048_7_0" index="0" disallow="pedestrian tram rail_urban rail rail_electric rail_fast ship" speed="13.89" length="27.40" shape="7982.52,13299.48 7991.04,13298.22 7997.49,13297.99 8003.25,13297.90 8009.75,13297.03"/>
        <lane id=":J048_7_1" index="1" disallow="pedestrian tram rail_urban rail rail_electric rail_fast ship" speed="13.89" length="27.40" shape="7983.17,13302.62 7991.70,13301.35 7998.15,13301.12 8003.92,13301.03 8010.42,13300.16"/>
    </edge>
    <edge id=":J048_9" function="internal">
        <lane id=":J048_9_0" index="0" disallow="pedestrian tram rail_urban rail rail_electric rail_fast ship" speed="10.38" length="7.13" shape="7983.82,13305.75 7990.51,13305.33 7990.92,13305.47"/>
    </edge>
    <edge id=":J048_11" function="internal">
        <lane id=":J048_11_0" index="0" disallow="pedestrian tram rail_urban rail rail_electric rail_fast ship" speed="10.38" length="17.39" shape="7990.92,13305.47 7995.74,13307.15 7999.52,13311.22 8001.83,13317.53"/>
    </edge>
    <edge id=":J049_0" function="internal">
        <lane id=":J049_0_0" index="0" disallow="pedestrian tram rail_urban rail rail_electric rail_fast ship" speed="13.89" length="20.64" shape="8332.33,13241.03 8312.10,13244.92"/>
        <lane id=":J049_0_1" index="1" disallow="pedestrian tram rail_urban rail rail_electric rail_fast ship" speed="13.89" length="20.64" shape="8331.76,13237.88 8311.46,13241.79"/>
    </edge>
    <edge id=":J049_2" function="internal">
        <lane id=":J049_2_0" index="0" disallow="pedestrian tram rail_urban rail rail_electric rail_fast ship" speed="9.09" length="4.72" shape="8331.76,13237.88 8327.05,13238.07"/>
    </edge>
    <edge id=":J049_8" function="internal">
        <lane id=":J049_8_0" index="0" disallow="pedestrian tram rail_urban rail rail_electric rail_fast ship" speed="9.09" length="14.97" shape="8327.05,13238.07 8326.24,13238.10 8322.12,13236.51 8319.39,13233.10 8318.06,13227.89"/>
    </edge>
    <edge id=":J049_3" function="internal">
        <lane id=":J049_3_0" index="0" disallow="pedestrian tram rail_urban rail rail_electric rail_fast ship" speed="6.53" length="9.64" shape="8324.32,13226.16 8324.96,13228.92 8326.23,13230.74 8328.11,13231.63 8330.62,13231.59"/>
    </edge>
    <edge id=":J049_4" function="internal">
        <lane id=":J049_4_0" index="0" disallow="pedestrian tram rail_urban rail rail_electric rail_fast ship" speed="9.70" length="19.74" shape="8321.19,13227.03 8321.07,13232.64 8319.41,13236.98 8316.20,13240.02 8311.46,13241.79"/>
    </edge>
    <edge id=":J049_5" function="internal">
        <lane id=":J049_5_0" index="0" disallow="pedestrian tram rail_urban rail rail_electric rail_fast ship" speed="6.81" length="9.25" shape="8310.18,13235.52 8312.48,13234.69 8314.04,13233.28 8314.86,13231.30 8314.94,13228.75"/>
    </edge>
    <edge id=":J049_6" function="internal">
        <lane id=":J049_6_0" index="0" disallow="pedestrian tram rail_urban rail rail_electric rail_fast ship" speed="13.89" length="20.78" shape="8310.18,13235.52 8330.62,13231.59"/>
        <lane id=":J049_6_1" index="1" disallow="pedestrian tram rail_urban rail rail_electric rail_fast ship" speed="13.89" length="20.78" shape="8310.82,13238.66 8331.19,13234.74"/>
    </edge>
    <edge id=":J050_0" function="internal">
        <lane id=":J050_0_0" index="0" disallow="pedestrian tram rail_urban rail rail_electric rail_fast ship" speed="6.71" length="10.35" shape="8887.05,13149.90 8886.48,13146.74 8885.26,13144.61 8883.39,13143.52 8880.87,13143.46"/>
    </edge>
    <edge id=":J050_1" function="internal">
        <lane id=":J050_1_0" index="0" disallow="pedestrian tram rail_urban rail rail_electric rail_fast ship" speed="13.89" length="26.60" shape="8890.25,13149.68 8890.06,13141.33 8890.39,13135.12 8890.48,13129.56 8889.60,13123.15"/>
    </edge>
    <edge id=":J050_2" function="internal">
        <lane id=":J050_2_0" index="0" disallow="pedestrian tram rail_urban rail rail_electric rail_fast ship" speed="10.78" length="6.80" shape="8893.44,13149.46 8893.92,13143.03 8894.07,13142.72"/>
    </edge>
    <edge id=":J050_12" function="internal">
        <lane id=":J050_12_0" index="0" disallow="pedestrian tram rail_urban rail rail_electric rail_fast ship" speed="10.78" length="17.46" shape="8894.07,13142.72 8896.35,13138.05 8900.72,13134.52 8907.04,13132.44"/>
    </edge>
    <edge id=":J050_3" function="internal">
        <lane id=":J050_3_0" index="0" disallow="pedestrian tram rail_urban rail rail_electric rail_fast ship" speed="7.89" length="12.56" shape="8908.78,13141.87 8904.72,13142.97 8901.88,13144.53 8900.24,13146.55 8899.82,13149.02"/>
    </edge>
    <edge id=":J050_4" function="internal">
        <lane id=":J050_4_0" index="0" disallow="pedestrian tram rail_urban rail rail_electric rail_fast ship" speed="13.89" length="27.93" shape="8908.20,13138.73 8899.46,13139.83 8892.84,13139.87 8886.95,13139.74 8880.36,13140.30"/>
    </edge>
    <edge id=":J050_5" function="internal">
        <lane id=":J050_5_0" index="0" disallow="pedestrian tram rail_urban rail rail_electric rail_fast ship" speed="10.54" length="6.99" shape="8907.62,13135.58 8900.98,13135.83 8900.66,13135.71"/>
    </edge>
    <edge id=":J050_13" function="internal">
        <lane id=":J050_13_0" index="0" disallow="pedestrian tram rail_urban rail rail_electric rail_fast ship" speed="10.54" length="17.80" shape="8900.66,13135.71 8895.76,13133.84 8891.97,13129.62 8889.60,13123.15"/>
    </edge>
    <edge id=":J050_6" function="internal">
        <lane id=":J050_6_0" index="0" disallow="pedestrian tram rail_urban rail rail_electric rail_fast ship" speed="7.58" length="12.33" shape="8898.98,13121.10 8900.20,13125.07 8901.86,13127.75 8903.94,13129.16 8906.45,13129.30"/>
    </edge>
    <edge id=":J050_7" function="internal">
        <lane id=":J050_7_0" index="0" disallow="pedestrian tram rail_urban rail rail_electric rail_fast ship" speed="13.89" length="27.57" shape="8895.86,13121.79 8897.12,13130.33 8897.09,13136.80 8896.63,13142.63 8896.63,13149.24"/>
    </edge>
    <edge id=":J050_8" function="internal">
        <lane id=":J050_8_0" index="0" disallow="pedestrian tram rail_urban rail rail_electric rail_fast ship" speed="10.27" length="7.35" shape="8892.73,13122.47 8893.21,13129.32 8893.05,13129.77"/>
    </edge>
    <edge id=":J050_14" function="internal">
        <lane id=":J050_14_0" index="0" disallow="pedestrian tram rail_urban rail rail_electric rail_fast ship" speed="10.27" length="17.72" shape="8893.05,13129.77 8891.31,13134.58 8887.03,13138.24 8880.36,13140.30"/>
    </edge>
    <edge id=":J050_9" function="internal">
        <lane id=":J050_9_0" index="0" disallow="pedestrian tram rail_urban rail rail_electric rail_fast ship" speed="7.20" length="11.77" shape="8878.84,13130.82 8882.64,13129.85 8885.18,13128.36 8886.46,13126.36 8886.48,13123.84"/>
    </edge>
    <edge id=":J050_10" function="internal">
        <lane id=":J050_10_0" index="0" disallow="pedestrian tram rail_urban rail rail_electric rail_fast ship" speed="13.89" length="27.78" shape="8879.34,13133.98 8888.06,13133.07 8894.64,13133.07 8900.49,13133.14 8907.04,13132.44"/>
    </edge>
    <edge id=":J050_11" function="internal">
        <lane id=":J050_11_0" index="0" disallow="pedestrian tram rail_urban rail rail_electric rail_fast ship" speed="9.95" length="7.64" shape="8879.85,13137.14 8886.82,13136.94 8887.45,13137.18"/>
    </edge>
    <edge id=":J050_15" function="internal">
        <lane id=":J050_15_0" index="0" disallow="pedestrian tram rail_urban rail rail_electric rail_fast ship" speed="9.95" length="16.46" shape="8887.45,13137.18 8891.93,13138.90 8895.21,13143.00 8896.63,13149.24"/>
    </edge>
    <edge id=":J051_0" function="internal">
        <lane id=":J051_0_0" index="0" disallow="pedestrian tram rail_urban rail rail_electric rail_fast ship" speed="13.89" length="17.74" shape="7932.14,13323.05 7914.94,13326.93"/>
        <lane id=":J051_0_1" index="1" disallow="pedestrian tram rail_urban rail rail_electric rail_fast ship" speed="13.89" length="17.74" shape="7931.49,13319.91 7914.09,13323.84"/>
    </edge>
    <edge id=":J051_2" function="internal">
        <lane id=":J051_2_0" index="0" disallow="pedestrian tram rail_urban rail rail_electric rail_fast ship" speed="13.89" length="18.36" shape="7912.39,13317.65 7917.61,13315.93 7920.95,13314.01 7924.29,13312.14 7929.54,13310.51"/>
        <lane id=":J051_2_1" index="1" disallow="pedestrian tram rail_urban rail rail_electric rail_fast ship" speed="13.89" length="18.36" shape="7912.39,13317.65 7930.19,13313.65"/>
        <lane id=":J051_2_2" index="2" disallow="pedestrian tram rail_urban rail rail_electric rail_fast ship" speed="13.89" length="18.36" shape="7913.24,13320.74 7918.40,13319.03 7921.70,13317.13 7925.00,13315.26 7930.19,13313.65"/>
        <lane id=":J051_2_3" index="3" disallow="pedestrian tram rail_urban rail rail_electric rail_fast ship" speed="13.89" length="18.36" shape="7913.24,13320.74 7930.84,13316.78"/>
    </edge>
    <edge id=":J1_0" function="internal">
        <lane id=":J1_0_0" index="0" disallow="pedestrian tram rail_urban rail rail_electric rail_fast ship" speed="11.95" length="15.96" shape="8990.14,13123.47 8985.65,13124.85 8982.80,13126.50 8979.94,13128.14 8975.45,13129.47"/>
        <lane id=":J1_0_1" index="1" disallow="pedestrian tram rail_urban rail rail_electric rail_fast ship" speed="11.95" length="15.96" shape="8990.14,13123.47 8974.86,13126.32"/>
        <lane id=":J1_0_2" index="2" disallow="pedestrian tram rail_urban rail rail_electric rail_fast ship" speed="11.95" length="15.96" shape="8990.14,13123.47 8985.47,13123.87 8982.21,13123.35 8978.95,13122.83 8974.28,13123.18"/>
        <lane id=":J1_0_3" index="3" disallow="pedestrian tram rail_urban rail rail_electric rail_fast ship" speed="11.95" length="15.96" shape="8989.41,13120.35 8984.93,13122.24 8982.44,13124.94 8979.94,13127.63 8975.45,13129.47"/>
        <lane id=":J1_0_4" index="4" disallow="pedestrian tram rail_urban rail rail_electric rail_fast ship" speed="11.95" length="15.96" shape="8989.41,13120.35 8984.97,13121.72 8982.14,13123.37 8979.31,13125.00 8974.86,13126.32"/>
        <lane id=":J1_0_5" index="5" disallow="pedestrian tram rail_urban rail rail_electric rail_fast ship" speed="11.95" length="15.96" shape="8989.41,13120.35 8974.28,13123.18"/>
    </edge>
    <edge id=":J1_6" function="internal">
        <lane id=":J1_6_0" index="0" disallow="pedestrian tram rail_urban rail rail_electric rail_fast ship" speed="11.95" length="15.18" shape="8973.12,13116.91 8987.96,13114.11"/>
        <lane id=":J1_6_1" index="1" disallow="pedestrian tram rail_urban rail rail_electric rail_fast ship" speed="11.95" length="15.18" shape="8973.70,13120.06 8988.69,13117.23"/>
    </edge>
    <edge id=":J10_0" function="internal">
        <lane id=":J10_0_0" index="0" disallow="pedestrian tram rail_urban rail rail_electric rail_fast ship" speed="10.00" length="15.72" shape="10553.43,13063.75 10537.85,13061.66"/>
        <lane id=":J10_0_1" index="1" disallow="pedestrian tram rail_urban rail rail_electric rail_fast ship" speed="10.00" length="15.72" shape="10553.84,13060.58 10538.25,13058.48"/>
    </edge>
    <edge id=":J10_2" function="internal">
        <lane id=":J10_2_0" index="0" disallow="pedestrian tram rail_urban rail rail_electric rail_fast ship" speed="10.00" length="15.95" shape="10539.07,13052.14 10543.81,13052.33 10547.07,13051.65 10550.35,13050.95 10555.09,13051.06"/>
        <lane id=":J10_2_1" index="1" disallow="pedestrian tram rail_urban rail rail_electric rail_fast ship" speed="10.00" length="15.95" shape="10539.07,13052.14 10554.68,13054.23"/>
        <lane id=":J10_2_2" index="2" disallow="pedestrian tram rail_urban rail rail_electric rail_fast ship" speed="10.00" length="15.95" shape="10538.66,13055.31 10543.39,13055.50 10546.66,13054.82 10549.93,13054.12 10554.68,13054.23"/>
        <lane id=":J10_2_3" index="3" disallow="pedestrian tram rail_urban rail rail_electric rail_fast ship" speed="10.00" length="15.95" shape="10538.66,13055.31 10554.26,13057.40"/>
    </edge>
    <edge id=":J12_0" function="internal">
        <lane id=":J12_0_0" index="0" disallow="pedestrian tram rail_urban rail rail_electric rail_fast ship" speed="6.32" length="9.04" shape="10679.79,13083.43 10677.29,13083.53 10675.49,13084.43 10674.39,13086.12 10674.01,13088.60"/>
    </edge>
    <edge id=":J12_1" function="internal">
        <lane id=":J12_1_0" index="0" disallow="pedestrian tram rail_urban rail rail_electric rail_fast ship" speed="11.95" length="30.97" shape="10679.79,13083.43 10670.17,13081.91 10662.80,13079.96 10656.37,13078.04 10649.56,13076.63"/>
        <lane id=":J12_1_1" index="1" disallow="pedestrian tram rail_urban rail rail_electric rail_fast ship" speed="11.95" length="30.97" shape="10680.11,13080.24 10670.50,13078.73 10663.17,13076.78 10656.78,13074.86 10649.99,13073.46"/>
    </edge>
    <edge id=":J12_3" function="internal">
        <lane id=":J12_3_0" index="0" disallow="pedestrian tram rail_urban rail rail_electric rail_fast ship" speed="11.30" length="26.66" shape="10680.43,13077.06 10673.49,13075.35 10668.48,13071.83 10665.42,13066.50 10664.30,13059.35"/>
    </edge>
    <edge id=":J12_4" function="internal">
        <lane id=":J12_4_0" index="0" disallow="pedestrian tram rail_urban rail rail_electric rail_fast ship" speed="8.57" length="14.95" shape="10673.89,13059.17 10674.42,13063.95 10675.79,13067.46 10678.01,13069.71 10681.08,13070.69"/>
    </edge>
    <edge id=":J12_5" function="internal">
        <lane id=":J12_5_0" index="0" disallow="pedestrian tram rail_urban rail rail_electric rail_fast ship" speed="10.00" length="29.38" shape="10673.89,13059.17 10674.01,13088.60"/>
        <lane id=":J12_5_1" index="1" disallow="pedestrian tram rail_urban rail rail_electric rail_fast ship" speed="10.00" length="29.38" shape="10670.70,13059.23 10670.81,13088.56"/>
    </edge>
    <edge id=":J12_7" function="internal">
        <lane id=":J12_7_0" index="0" disallow="pedestrian tram rail_urban rail rail_electric rail_fast ship" speed="10.00" length="26.66" shape="10667.50,13059.29 10666.52,13066.38 10663.27,13071.11 10657.76,13073.47 10649.99,13073.46"/>
    </edge>
    <edge id=":J12_8" function="internal">
        <lane id=":J12_8_0" index="0" disallow="pedestrian tram rail_urban rail rail_electric rail_fast ship" speed="7.17" length="12.48" shape="10651.26,13063.94 10655.61,13064.16 10658.69,13063.47 10660.52,13061.89 10661.10,13059.41"/>
    </edge>
    <edge id=":J12_9" function="internal">
        <lane id=":J12_9_0" index="0" disallow="pedestrian tram rail_urban rail rail_electric rail_fast ship" speed="11.95" length="30.65" shape="10651.26,13063.94 10660.80,13065.70 10668.01,13067.69 10674.31,13069.49 10681.08,13070.69"/>
        <lane id=":J12_9_1" index="1" disallow="pedestrian tram rail_urban rail rail_electric rail_fast ship" speed="11.95" length="30.65" shape="10650.84,13067.11 10660.39,13068.87 10667.64,13070.86 10673.97,13072.67 10680.76,13073.87"/>
    </edge>
    <edge id=":J12_11" function="internal">
        <lane id=":J12_11_0" index="0" disallow="pedestrian tram rail_urban rail rail_electric rail_fast ship" speed="10.00" length="27.86" shape="10650.41,13070.28 10658.00,13072.30 10663.40,13076.01 10666.60,13081.42 10667.61,13088.53"/>
    </edge>
    <edge id=":J12_12" function="internal">
        <lane id=":J12_12_0" index="0" disallow="pedestrian tram rail_urban rail rail_electric rail_fast ship" speed="8.31" length="13.97" shape="10654.81,13088.38 10654.53,13083.51 10653.56,13079.93 10651.90,13077.63 10649.56,13076.63"/>
    </edge>
    <edge id=":J12_13" function="internal">
        <lane id=":J12_13_0" index="0" disallow="pedestrian tram rail_urban rail rail_electric rail_fast ship" speed="10.00" length="29.26" shape="10658.01,13088.42 10658.59,13079.14 10659.68,13072.19 10660.72,13066.11 10661.10,13059.41"/>
        <lane id=":J12_13_1" index="1" disallow="pedestrian tram rail_urban rail rail_electric rail_fast ship" speed="10.00" length="29.26" shape="10661.21,13088.45 10661.79,13079.14 10662.88,13072.16 10663.92,13066.06 10664.30,13059.35"/>
    </edge>
    <edge id=":J12_15" function="internal">
        <lane id=":J12_15_0" index="0" disallow="pedestrian tram rail_urban rail rail_electric rail_fast ship" speed="10.24" length="25.55" shape="10664.41,13088.49 10665.50,13081.48 10668.59,13076.71 10673.67,13074.18 10680.76,13073.87"/>
    </edge>
    <edge id=":J14_0" function="internal">
        <lane id=":J14_0_0" index="0" disallow="pedestrian tram rail_urban rail rail_electric rail_fast ship" speed="13.89" length="0.44" shape="11166.43,13031.71 11166.36,13031.72 11166.32,13031.73 11166.27,13031.74 11166.21,13031.76"/>
        <lane id=":J14_0_1" index="1" disallow="pedestrian tram rail_urban rail rail_electric rail_fast ship" speed="13.89" length="0.44" shape="11165.94,13028.55 11165.75,13028.58 11165.62,13028.60 11165.49,13028.63 11165.30,13028.69"/>
    </edge>
    <edge id=":J14_2" function="internal">
        <lane id=":J14_2_0" index="0" disallow="pedestrian tram rail_urban rail rail_electric rail_fast ship" speed="13.89" length="1.31" shape="11163.49,13022.55 11163.92,13022.42 11164.23,13022.35 11164.53,13022.29 11164.98,13022.22"/>
        <lane id=":J14_2_1" index="1" disallow="pedestrian tram rail_urban rail rail_electric rail_fast ship" speed="13.89" length="1.31" shape="11164.40,13025.62 11164.71,13025.53 11164.92,13025.47 11165.14,13025.43 11165.46,13025.38"/>
    </edge>
    <edge id=":J16_0" function="internal">
        <lane id=":J16_0_0" index="0" disallow="pedestrian tram rail_urban rail rail_electric rail_fast ship" speed="13.89" length="19.62" shape="11266.16,13017.84 11260.40,13017.99 11256.46,13018.20 11252.53,13018.64 11246.83,13019.48"/>
        <lane id=":J16_0_1" index="1" disallow="pedestrian tram rail_urban rail rail_electric rail_fast ship" speed="13.89" length="19.62" shape="11266.08,13014.64 11260.20,13014.79 11256.18,13015.01 11252.17,13015.46 11246.35,13016.32"/>
    </edge>
    <edge id=":J16_2" function="internal">
        <lane id=":J16_2_0" index="0" disallow="pedestrian tram rail_urban rail rail_electric rail_fast ship" speed="9.25" length="4.93" shape="11266.08,13014.64 11261.18,13014.06"/>
    </edge>
    <edge id=":J16_8" function="internal">
        <lane id=":J16_8_0" index="0" disallow="pedestrian tram rail_urban rail rail_electric rail_fast ship" speed="9.25" length="14.46" shape="11261.18,13014.06 11260.80,13014.01 11256.99,13011.85 11254.66,13008.14 11253.81,13002.89"/>
    </edge>
    <edge id=":J16_3" function="internal">
        <lane id=":J16_3_0" index="0" disallow="pedestrian tram rail_urban rail rail_electric rail_fast ship" speed="6.50" length="9.03" shape="11260.21,13002.77 11260.61,13005.21 11261.69,13006.94 11263.46,13007.95 11265.92,13008.24"/>
    </edge>
    <edge id=":J16_4" function="internal">
        <lane id=":J16_4_0" index="0" disallow="pedestrian tram rail_urban rail rail_electric rail_fast ship" speed="9.67" length="19.08" shape="11257.01,13002.83 11256.43,13008.11 11254.46,13012.12 11251.10,13014.85 11246.35,13016.32"/>
    </edge>
    <edge id=":J16_5" function="internal">
        <lane id=":J16_5_0" index="0" disallow="pedestrian tram rail_urban rail rail_electric rail_fast ship" speed="7.06" length="9.72" shape="11245.39,13009.99 11247.72,13009.24 11249.37,13007.82 11250.33,13005.72 11250.61,13002.95"/>
    </edge>
    <edge id=":J16_6" function="internal">
        <lane id=":J16_6_0" index="0" disallow="pedestrian tram rail_urban rail rail_electric rail_fast ship" speed="13.89" length="20.43" shape="11245.39,13009.99 11251.36,13009.12 11255.62,13008.64 11259.89,13008.40 11265.92,13008.24"/>
        <lane id=":J16_6_1" index="1" disallow="pedestrian tram rail_urban rail rail_electric rail_fast ship" speed="13.89" length="20.43" shape="11245.87,13013.15 11251.78,13012.28 11255.90,13011.82 11260.03,13011.60 11266.00,13011.44"/>
    </edge>
    <edge id=":J18_0" function="internal">
        <lane id=":J18_0_0" index="0" disallow="pedestrian tram rail_urban rail rail_electric rail_fast ship" speed="13.89" length="0.59" shape="11446.15,13042.63 11445.48,13042.51"/>
        <lane id=":J18_0_1" index="1" disallow="pedestrian tram rail_urban rail rail_electric rail_fast ship" speed="13.89" length="0.59" shape="11446.64,13039.47 11446.16,13039.38"/>
    </edge>
    <edge id=":J18_2" function="internal">
        <lane id=":J18_2_0" index="0" disallow="pedestrian tram rail_urban rail rail_electric rail_fast ship" speed="13.89" length="0.20" shape="11447.52,13033.13 11447.62,13033.15"/>
        <lane id=":J18_2_1" index="1" disallow="pedestrian tram rail_urban rail rail_electric rail_fast ship" speed="13.89" length="0.20" shape="11446.84,13036.25 11447.13,13036.31"/>
    </edge>
    <edge id=":J20_0" function="internal">
        <lane id=":J20_0_0" index="0" disallow="pedestrian tram rail_urban rail rail_electric rail_fast ship" speed="13.89" length="19.98" shape="11504.17,13056.04 11498.68,13054.00 11495.11,13051.97 11491.50,13050.16 11485.87,13048.76"/>