<additional>

  <inductionLoop id="60830687eb1540ed9497e7e8d8e00e7a" lane="E1_0" pos="-30" freq="60" file="E1_out.xml"/>
  <inductionLoop id="bb41bf08c8ce46d4ae885c6d3e7797b4" lane="E1_1" pos="-30" freq="60" file="E1_out.xml"/>
  <inductionLoop id="67d62951e76b4ffcab2c4352a277de8d" lane="E1_2" pos="-30" freq="60" file="E1_out.xml"/>

  <inductionLoop id="5016a34f099c4f65bb99216f09205761" lane="-E0.276_0" pos="-30" freq="60" file="E1_out.xml"/>
  <inductionLoop id="8fd86f068d4744bf815a60ed996bc8ba" lane="-E0.276_1" pos="-30" freq="60" file="E1_out.xml"/>
  <inductionLoop id="38f8059f03cd4a0581b75997a09ee5d6" lane="-E0.276_2" pos="-30" freq="60" file="E1_out.xml"/>

  <inductionLoop id="83c4022379e9485b8d39d5879e09edb1" lane="E100_0" pos="-30" freq="60" file="E1_out.xml"/>
  <inductionLoop id="b4ccc546d4da49b6b58abaa150df8688" lane="E100_1" pos="-30" freq="60" file="E1_out.xml"/>



  <inductionLoop id="134b0771b0e04ca3983613fd486ef7cc" lane="E00_0" pos="-30" freq="60" file="E1_out.xml"/>
  <inductionLoop id="3040bc40e31f424587c1846e21d3dcd4" lane="E00_1" pos="-30" freq="60" file="E1_out.xml"/>

  <inductionLoop id="7f70debe31204bf9b8baa98c09b2dbab" lane="E99_0" pos="-30" freq="60" file="E1_out.xml"/>
  <inductionLoop id="9cb90da9fe0549228a636ee8f02ad6b2" lane="E99_1" pos="-30" freq="60" file="E1_out.xml"/>

  <inductionLoop id="1e68563d1d3d4cfdb697ad1890409f2e" lane="-E3_0" pos="-30" freq="60" file="E1_out.xml"/>
  <inductionLoop id="09d3239ad34d48988777957209f79ef8" lane="-E3_1" pos="-30" freq="60" file="E1_out.xml"/>


  <inductionLoop id="0795cfe7bf904d2ba7ea0fc0b7b001a9" lane="E4_0" pos="-30" freq="60" file="E1_out.xml"/>
  <inductionLoop id="5280456aa64b4ff08fe63b0604d25a2a" lane="E4_1" pos="-30" freq="60" file="E1_out.xml"/>
  <inductionLoop id="d4d78d1e3edf4da89c11260f60f0ff72" lane="E4_2" pos="-30" freq="60" file="E1_out.xml"/>

  <inductionLoop id="5f007f5e7634405fb2eeb2e6267641fd" lane="-E5_0" pos="-30" freq="60" file="E1_out.xml"/>
  <inductionLoop id="c280fa27c6db45b191b0fd39987d5188" lane="-E5_1" pos="-30" freq="60" file="E1_out.xml"/>
  <inductionLoop id="b37c48d4bfe748a28d3499c81ffdbb3f" lane="-E5_2" pos="-30" freq="60" file="E1_out.xml"/>

  <inductionLoop id="4b7bc6ab512b46648e8875f9d000c669" lane="E6_0" pos="-30" freq="60" file="E1_out.xml"/>
  <inductionLoop id="45ce088830094aa1b8733c94ffa02d66" lane="E6_1" pos="-30" freq="60" file="E1_out.xml"/>
  <inductionLoop id="a92481b5195f4bf3b75097b7ec74d568" lane="E6_2" pos="-30" freq="60" file="E1_out.xml"/>

  <inductionLoop id="c65c84f5d60144e2955877a72f70a6dd" lane="E7_0" pos="-30" freq="60" file="E1_out.xml"/>
  <inductionLoop id="189921224ace4798a4baaaf150f1a8e5" lane="E7_1" pos="-30" freq="60" file="E1_out.xml"/>
  <inductionLoop id="52a84876e6c14d48a1670e91f743157f" lane="E7_2" pos="-30" freq="60" file="E1_out.xml"/>


  <inductionLoop id="c08a0dacbed74d3e820fa3ee2f3c3325" lane="E11_0" pos="-30" freq="60" file="E1_out.xml"/>
  <inductionLoop id="4e48e60059694a199af6224fbe8efc6a" lane="E11_1" pos="-30" freq="60" file="E1_out.xml"/>
  <inductionLoop id="c47c2933cf294d3ba60f5173e91dfd2f" lane="E11_2" pos="-30" freq="60" file="E1_out.xml"/>
  <inductionLoop id="1d1ccb3c669c48d39b16811c6664c1c0" lane="E11_3" pos="-30" freq="60" file="E1_out.xml"/>

  <inductionLoop id="ee3b88fc1c8c480b8f7c51179ecdc2e6" lane="-E12.352_0" pos="-30" freq="60" file="E1_out.xml"/>
  <inductionLoop id="0e1f61508ff54263860c1d0375fed64c" lane="-E12.352_1" pos="-30" freq="60" file="E1_out.xml"/>
  <inductionLoop id="8eb52e7fad9e45c5a91f75b55c438f31" lane="-E12.352_2" pos="-30" freq="60" file="E1_out.xml"/>

  <inductionLoop id="e41fa7b63687418793ef3c2e69eb0847" lane="E10_0" pos="-30" freq="60" file="E1_out.xml"/>
  <inductionLoop id="5f1aa1c28fa94ea09848238fb125004b" lane="E10_1" pos="-30" freq="60" file="E1_out.xml"/>
  <inductionLoop id="a59432d0c5e54515bbed967e419b0eb5" lane="E10_2" pos="-30" freq="60" file="E1_out.xml"/>
  <inductionLoop id="82c48d45b50d42a6bd650fa0dc812519" lane="E10_3" pos="-30" freq="60" file="E1_out.xml"/>

  <inductionLoop id="d7ea22e647da454eae873452263f5120" lane="E9_0" pos="-30" freq="60" file="E1_out.xml"/>
  <inductionLoop id="e96977c73b37422ba70d32f14ffc68b0" lane="E9_1" pos="-30" freq="60" file="E1_out.xml"/>
  <inductionLoop id="57edf15f2fa240efba69a3482d2837af" lane="E9_2" pos="-30" freq="60" file="E1_out.xml"/>

  <inductionLoop id="65835f3ff28744c284cbbc0cd030c177" lane="-E16.416_0" pos="-30" freq="60" file="E1_out.xml"/>
  <inductionLoop id="ebfff8bbf68144b1bbb0bc1917fa7d34" lane="-E16.416_1" pos="-30" freq="60" file="E1_out.xml"/>
  <inductionLoop id="13cd7545fe544b4cb945319a35c54fdc" lane="-E16.416_2" pos="-30" freq="60" file="E1_out.xml"/>

  <inductionLoop id="e7fecf81988c451eadfe08036738d63e" lane="E13_0" pos="-30" freq="60" file="E1_out.xml"/>
  <inductionLoop id="33fcbacc42464ab19049336c02090b5b" lane="E13_1" pos="-30" freq="60" file="E1_out.xml"/>
  <inductionLoop id="1e73a8e272e94d6498e5570cf27578ae" lane="E13_2" pos="-30" freq="60" file="E1_out.xml"/>

  <inductionLoop id="8dd80af6d5064e0bb3fc17788edc28e1" lane="E14_0" pos="-30" freq="60" file="E1_out.xml"/>
  <inductionLoop id="83f9725e11f34378890602a680da6997" lane="E14_1" pos="-30" freq="60" file="E1_out.xml"/>
  <inductionLoop id="d7bf38cc419c4318b1c2f8cddc5ec7f0" lane="E14_2" pos="-30" freq="60" file="E1_out.xml"/>

  <inductionLoop id="5ded720453ba425885068f36a14bf857" lane="E15_0" pos="-30" freq="60" file="E1_out.xml"/>
  <inductionLoop id="f3d4d6e378dc49fdb4f5a889d753dec6" lane="E15_1" pos="-30" freq="60" file="E1_out.xml"/>
  <inductionLoop id="f3f6a7706b494e9f8913e57ab5ab5a06" lane="E15_2" pos="-30" freq="60" file="E1_out.xml"/>
  <inductionLoop id="faedc8c45d9544fdbbc58a7ec686dbe9" lane="E15_3" pos="-30" freq="60" file="E1_out.xml"/>

  <inductionLoop id="6e46079f7dbe4de5900a288953b0f424" lane="-E22_0" pos="-30" freq="60" file="E1_out.xml"/>
  <inductionLoop id="e6b10cd8499a45619d264404a9da0b7f" lane="-E22_1" pos="-30" freq="60" file="E1_out.xml"/>
  <inductionLoop id="aa647f4edafc4795a2a5a3af44f770e3" lane="-E22_2" pos="-30" freq="60" file="E1_out.xml"/>

  <inductionLoop id="605d24d825494c9a98cd9d06b930e3f7" lane="E20_0" pos="-30" freq="60" file="E1_out.xml"/>
  <inductionLoop id="5088f080b8944a5ead3c421ee7995a0d" lane="E20_1" pos="-30" freq="60" file="E1_out.xml"/>

  <inductionLoop id="108271c4f10b4f3ea086de96f5f639b9" lane="E21_0" pos="-30" freq="60" file="E1_out.xml"/>
  <inductionLoop id="ea06ca6e202e459188692a1d8a8f5bab" lane="E21_1" pos="-30" freq="60" file="E1_out.xml"/>

  <inductionLoop id="d02ef89282c64a48969ca21d1a414a7d" lane="-E27.751_0" pos="-30" freq="60" file="E1_out.xml"/>
  <inductionLoop id="b9dfbd8c99a54c848bacff3644df9496" lane="-E27.751_1" pos="-30" freq="60" file="E1_out.xml"/>
  <inductionLoop id="261d789d347940a098f1140f06deb2b8" lane="-E27.751_2" pos="-30" freq="60" file="E1_out.xml"/>
  <inductionLoop id="071493befe5d4e2990fbfaba39c3c3db" lane="-E27.751_3" pos="-30" freq="60" file="E1_out.xml"/>

  <inductionLoop id="375e7e8e7eb04635aa22f3b3ed174a9c" lane="E24_0" pos="-30" freq="60" file="E1_out.xml"/>
  <inductionLoop id="0a88e390f4b242539b7d5c0297cfd1ef" lane="E24_1" pos="-30" freq="60" file="E1_out.xml"/>
  <inductionLoop id="61ae7f146666497eb155fd3738b66ccc" lane="E24_2" pos="-30" freq="60" file="E1_out.xml"/>
  <inductionLoop id="7f2a7a902ca14a309a4a4b51692767ce" lane="E24_3" pos="-30" freq="60" file="E1_out.xml"/>
  <inductionLoop id="8c3e88b0b1144ac1bbb567f73b81fa65" lane="E24_4" pos="-30" freq="60" file="E1_out.xml"/>

  <inductionLoop id="4d43dac546fc4cd78f922ff8205510ff" lane="E25_0" pos="-30" freq="60" file="E1_out.xml"/>
  <inductionLoop id="426345fc861c4dfb9652346cc21cf2cd" lane="E25_1" pos="-30" freq="60" file="E1_out.xml"/>
  <inductionLoop id="d3393e47829c4d8fba11e5e86ef959bb" lane="E25_2" pos="-30" freq="60" file="E1_out.xml"/>
  <inductionLoop id="91d7d192f60542fa9db1b89f8c6888c4" lane="E25_3" pos="-30" freq="60" file="E1_out.xml"/>

  <inductionLoop id="98bcc41edd004094b02dbd8910634109" lane="E26_0" pos="-30" freq="60" file="E1_out.xml"/>
  <inductionLoop id="b35fe78d74f24a0fb39c331b904b1447" lane="E26_1" pos="-30" freq="60" file="E1_out.xml"/>
  <inductionLoop id="80fdae30b80e41c9952130749f264605" lane="E26_2" pos="-30" freq="60" file="E1_out.xml"/>
  <inductionLoop id="3c11d4da03a2414db7c72828f2c0246a" lane="E26_3" pos="-30" freq="60" file="E1_out.xml"/>
  <inductionLoop id="0943395532ca4e849b94535fe0cf0225" lane="E26_4" pos="-30" freq="60" file="E1_out.xml"/>

  <inductionLoop id="40420c6bd93e4335aab7ba5980e59fa5" lane="-E31.408_0" pos="-30" freq="60" file="E1_out.xml"/>
  <inductionLoop id="9ca82ab9c8884ae48b1f10d8387c2858" lane="-E31.408_1" pos="-30" freq="60" file="E1_out.xml"/>
  <inductionLoop id="341cc81897484fa9a8507ac80cc58c9f" lane="-E31.408_2" pos="-30" freq="60" file="E1_out.xml"/>
  <inductionLoop id="e250a373b1bb4b1cb483d1b88beec868" lane="-E31.408_3" pos="-30" freq="60" file="E1_out.xml"/>

  <inductionLoop id="4a23577bb13d415a9724e968c5cd134f" lane="E28_0" pos="-30" freq="60" file="E1_out.xml"/>
  <inductionLoop id="f3d539190d78484aace5af51eb1aec95" lane="E28_1" pos="-30" freq="60" file="E1_out.xml"/>
  <inductionLoop id="1efc8f9b02824bb8accce2eceb1889ea" lane="E28_2" pos="-30" freq="60" file="E1_out.xml"/>
  <inductionLoop id="2cce05395f8c4b5abee52b6c43587c1a" lane="E28_3" pos="-30" freq="60" file="E1_out.xml"/>
  <inductionLoop id="c50beea2c2964f7a99de8da7382856ef" lane="E28_4" pos="-30" freq="60" file="E1_out.xml"/>

  <inductionLoop id="c28edc4b6af142729a6d201da94d4216" lane="E30_0" pos="-30" freq="60" file="E1_out.xml"/>
  <inductionLoop id="7b50c0e8350d419a8ff601bf6893dcad" lane="E30_1" pos="-30" freq="60" file="E1_out.xml"/>
  <inductionLoop id="9292a021ea22468580b5c33d8c1440e7" lane="E30_2" pos="-30" freq="60" file="E1_out.xml"/>

  <inductionLoop id="20de1c24d10c450f98202d48f63ab149" lane="E32_0" pos="-30" freq="60" file="E1_out.xml"/>
  <inductionLoop id="913d9b8d9fcb4c949349df3dbb971fe0" lane="E32_1" pos="-30" freq="60" file="E1_out.xml"/>
  <inductionLoop id="ab8040220723404e9955fd4faa4209d2" lane="E32_2" pos="-30" freq="60" file="E1_out.xml"/>
  <inductionLoop id="2145ee4913f0476695e5ac932eef15fa" lane="E32_3" pos="-30" freq="60" file="E1_out.xml"/>

  <inductionLoop id="83e3ebe96380487d9eaf78fc8c09af71" lane="-E36.758_0" pos="-30" freq="60" file="E1_out.xml"/>
  <inductionLoop id="9642ccef8b384b68bf0986d23619ce51" lane="-E36.758_1" pos="-30" freq="60" file="E1_out.xml"/>
  <inductionLoop id="e10ad0ce978e481c8380362157fdb8f5" lane="-E36.758_2" pos="-30" freq="60" file="E1_out.xml"/>
  <inductionLoop id="1d2ff069d63440cca8e37cfe5e271886" lane="-E36.758_3" pos="-30" freq="60" file="E1_out.xml"/>

  <inductionLoop id="2ecbf2e5e6fd48a0ae6ef07636e2e048" lane="E35_0" pos="-30" freq="60" file="E1_out.xml"/>
  <inductionLoop id="d86ae19cb1ca41b79b6c3ccfa6be2cf6" lane="E35_1" pos="-30" freq="60" file="E1_out.xml"/>
  <inductionLoop id="096a76c9fed84ca393393501f926e829" lane="E35_2" pos="-30" freq="60" file="E1_out.xml"/>
  <inductionLoop id="0f995154b7f843ba8e7cac8a2c2a1be4" lane="E35_3" pos="-30" freq="60" file="E1_out.xml"/>
  <inductionLoop id="eb060e0197674b3e9ec603ec10da441c" lane="E35_4" pos="-30" freq="60" file="E1_out.xml"/>

  <inductionLoop id="aba522b1d00a4f2ea503d3554c131bed" lane="E33_0" pos="-30" freq="60" file="E1_out.xml"/>
  <inductionLoop id="31b7e209f1894a369601667b4d109b74" lane="E33_1" pos="-30" freq="60" file="E1_out.xml"/>
  <inductionLoop id="1e4cf1e669634abf85caef4e6e52061f" lane="E33_2" pos="-30" freq="60" file="E1_out.xml"/>
  <inductionLoop id="599ab768cd0b41a79b2d63e6b1732948" lane="E33_3" pos="-30" freq="60" file="E1_out.xml"/>

  <inductionLoop id="0d94c8379519495c98fde6c71a318771" lane="E34_0" pos="-30" freq="60" file="E1_out.xml"/>
  <inductionLoop id="be5561a3a0b44a4d90a7de26b7c3a12f" lane="E34_1" pos="-30" freq="60" file="E1_out.xml"/>
  <inductionLoop id="b56b70242b684976b8b60e206b65d07e" lane="E34_2" pos="-30" freq="60" file="E1_out.xml"/>
  <inductionLoop id="451b77f9bae6479ab9e21ad665b874a6" lane="E34_3" pos="-30" freq="60" file="E1_out.xml"/>
  <inductionLoop id="006b726d1cb94a1f8bebd5d3e7f931c8" lane="E34_4" pos="-30" freq="60" file="E1_out.xml"/>

</additional>